* EL軸角加速度＋自重トルク考慮

.subckt th2dt2_el tha fn th2 th2dt1 out 

B1 out 0 V=if(V(tha) < dbrad, (- DL * V(th2dt1) - owntq * cos(V(th2)/gretio_el)) / JL, (V(fn) - DL * V(th2dt1) - owntq * cos(V(th2)/gretio_el)) / JL)

.ends th2dt2_el