.SUBCKT avg25 IN OUT

B1 OUT 0 V=
+ (V(IN) + Delay(V(IN),0.1) + Delay(V(IN),0.2) + Delay(V(IN),0.3) + Delay(V(IN),0.4) + Delay(V(IN),0.5)
+          + Delay(V(IN),0.6) + Delay(V(IN),0.7) + Delay(V(IN),0.8) + Delay(V(IN),0.9) + Delay(V(IN),1.0)
+          + Delay(V(IN),1.1) + Delay(V(IN),1.2) + Delay(V(IN),1.3) + Delay(V(IN),1.4) + Delay(V(IN),1.5)
+          + Delay(V(IN),1.6) + Delay(V(IN),1.7) + Delay(V(IN),1.8) + Delay(V(IN),1.9) + Delay(V(IN),2.0)
+          + Delay(V(IN),2.1) + Delay(V(IN),2.2) + Delay(V(IN),2.3) + Delay(V(IN),2.4) ) / 25

.ENDS avg25