* 減算

.subckt def in in- out 

B1 out 0 V={V(in) - V(in-)} 

.ends def