* GB角加速度

.subckt th1dt2 th1 th2 fn tq th1dt1 th1dt2 

B1 th1dt2 0 V=if(abs(V(th2) - V(th1)) < {dbrad}, (V(tq) - {DM} * V(th1dt1)        ) / {JM}, (V(tq) - {DM} * V(th1dt1) - V(fn)) / {JM})

.ends th1dt2