Version 4
SHEET 1 1588 1200
WIRE 0 -224 -64 -224
WIRE -64 -208 -64 -224
WIRE -480 -192 -496 -192
WIRE -464 -192 -480 -192
WIRE -352 -192 -368 -192
WIRE -336 -192 -352 -192
WIRE -208 -192 -240 -192
WIRE -496 -144 -496 -192
WIRE -64 -112 -64 -128
WIRE -352 -96 -352 -192
WIRE -336 -96 -352 -96
WIRE -208 -96 -240 -96
WIRE 0 -80 -64 -80
WIRE -64 -64 -64 -80
WIRE -496 -32 -496 -64
WIRE -64 32 -64 16
WIRE -480 208 -512 208
WIRE -368 224 -384 224
WIRE -352 224 -368 224
WIRE -240 224 -256 224
WIRE -224 224 -240 224
WIRE -112 224 -112 144
WIRE -112 224 -128 224
WIRE -96 224 -112 224
WIRE 16 224 0 224
WIRE 128 224 112 224
WIRE 240 224 224 224
WIRE 352 224 336 224
WIRE 368 224 352 224
WIRE 480 224 464 224
WIRE 592 224 576 224
WIRE 704 224 688 224
WIRE 816 224 800 224
WIRE 928 224 912 224
WIRE 1056 224 1024 224
WIRE -480 240 -512 240
WIRE -480 272 -512 272
WIRE -368 288 -368 224
WIRE -240 288 -240 224
WIRE -480 304 -512 304
WIRE 352 304 352 224
WIRE 640 304 640 272
WIRE 640 304 352 304
WIRE -48 336 -48 272
WIRE 0 336 -48 336
WIRE 288 336 288 272
WIRE 336 336 288 336
WIRE 480 448 432 448
WIRE 432 480 432 448
WIRE -336 512 -352 512
WIRE -288 512 -336 512
WIRE -80 512 -144 512
WIRE -16 512 -80 512
WIRE 112 512 80 512
WIRE 144 512 112 512
WIRE 272 512 240 512
WIRE 304 512 272 512
WIRE -480 544 -512 544
WIRE -336 544 -384 544
WIRE -288 544 -336 544
WIRE 112 560 112 512
WIRE -480 576 -512 576
WIRE -336 576 -384 576
WIRE -288 576 -336 576
WIRE 432 576 432 560
WIRE -288 608 -320 608
WIRE 480 624 432 624
WIRE 432 656 432 624
WIRE -320 672 -320 608
WIRE 112 672 112 560
WIRE 112 672 -320 672
WIRE 432 752 432 736
WIRE -352 768 -368 768
WIRE -288 768 -352 768
WIRE -80 768 -144 768
WIRE -16 768 -80 768
WIRE 112 768 80 768
WIRE 144 768 112 768
WIRE 272 768 240 768
WIRE 304 768 272 768
WIRE -352 800 -368 800
WIRE -288 800 -352 800
WIRE 480 800 432 800
WIRE 112 816 112 768
WIRE -288 832 -320 832
WIRE 432 832 432 800
WIRE -320 928 -320 832
WIRE 112 928 112 816
WIRE 112 928 -320 928
WIRE 432 928 432 912
FLAG 0 336 th1
FLAG 336 336 th1dt1
FLAG 432 928 0
FLAG 480 800 th2deg
FLAG -336 544 tha
FLAG -336 576 fn
FLAG -336 512 tq
FLAG -80 512 th1dt2m
FLAG -352 768 tha
FLAG -352 800 fn
FLAG -80 768 th2dt2m
FLAG 272 512 th1
FLAG 272 768 th2
FLAG 112 560 th1dt1
FLAG 112 816 th2dt1
FLAG -512 544 th1
FLAG -512 576 th2
FLAG 1056 224 tq
FLAG -512 208 COS
FLAG -512 240 SIN
FLAG -368 288 el_cmd_deg
FLAG -240 288 el_cmd_rad
FLAG -112 144 mtr_rad
FLAG 432 752 0
FLAG 480 624 th2dt1deg
FLAG 432 576 0
FLAG 480 448 th2dt2deg
FLAG -496 -32 0
FLAG -352 -96 az_p_deg
FLAG -208 -192 COS
FLAG -208 -96 SIN
FLAG -480 -192 az_v_deg
FLAG -64 -112 0
FLAG -64 32 0
FLAG 0 -224 theta
FLAG 0 -80 phi
FLAG -512 272 theta
FLAG -512 304 phi
SYMBOL bv 432 816 R0
SYMATTR InstName B5
SYMATTR Value V=V(th2) / pi * 180 / gretio_el
SYMBOL mysym/f_gen -432 560 R0
SYMATTR InstName U12
SYMBOL mysym/th1dt2 -240 528 R0
SYMATTR InstName U11
SYMBOL add 640 224 R0
SYMATTR InstName U2
SYMBOL integ 32 512 R0
SYMATTR InstName U5
SYMBOL integ 192 512 R0
SYMATTR InstName U6
SYMBOL integ 32 768 R0
SYMATTR InstName U7
SYMBOL integ 192 768 R0
SYMATTR InstName U8
SYMBOL kpp 64 224 R0
SYMATTR InstName U10
SYMBOL v_lim 176 224 R0
SYMATTR InstName U14
SYMBOL integ 416 224 R0
SYMATTR InstName U15
SYMBOL kvi 528 224 R0
SYMATTR InstName U16
SYMBOL kvp 752 224 R0
SYMATTR InstName U17
SYMBOL t_gen 864 224 R0
SYMATTR InstName U18
SYMBOL t_lim 976 224 R0
SYMATTR InstName U22
SYMBOL mysym/sub -48 224 R0
SYMATTR InstName U24
SYMBOL mysym/sub 288 224 R0
SYMATTR InstName U25
SYMBOL mysym/elev_calc -432 224 R0
SYMATTR InstName U1
SYMBOL mysym/deg_to_rad -304 224 R0
SYMATTR InstName U3
SYMBOL mysym/th2dt2_el -240 784 R0
SYMATTR InstName U9
SYMBOL bv 432 640 R0
SYMATTR InstName B1
SYMATTR Value V=V(th2dt1) / pi * 180 / gretio_el
SYMBOL bv 432 464 R0
SYMATTR InstName B2
SYMATTR Value V=V(th2dt2m) / pi * 180 / gretio_el
SYMBOL voltage -496 -160 R0
WINDOW 3 -40 172 Left 2
SYMATTR Value PULSE(0 {azv_deg} 1 {ta} {ta} {tc})
SYMATTR InstName V1
SYMBOL integ -416 -192 R0
SYMATTR InstName U13
SYMBOL mysym/cos_gen -288 -192 R0
SYMATTR InstName U19
SYMBOL mysym/sin_gen -288 -96 R0
SYMATTR InstName U20
SYMBOL mysym/gear_el -176 224 R0
SYMATTR InstName U21
SYMBOL voltage -64 -224 R0
SYMATTR InstName V2
SYMATTR Value PULSE(0 10 1 1u 1u 25)
SYMBOL voltage -64 -80 R0
SYMATTR InstName V3
SYMATTR Value PULSE(0 10 1 1u 1u 25)
TEXT 256 -240 Left 3 !.tran 30\n.ic V(th1)=0 V(th1dt1)=0 V(th2)=0 V(th2dt1)=0   \n.param kpp=30 kvp=90 kvi=30\n.param v_lim=5000/60*2*pi v_min=-v_lim v_max=v_lim\n.param t_lim=0.038 t_min=- t_lim t_max=t_lim\n.param gretio_el=480 owntq=2.51/gretio_el\n.param JM=6.4*10**-7 DM=1.0*10**-5\n.param JL=0.0613/gretio_el**2 DL=0.005/gretio_el**2\n.param kgb=1000 dbdeg=0.1 dbrad=dbdeg*pi/180\n.param azv_deg=36 aza_deg=21.6 ta=azv_deg/aza_deg\n.param tp=20 tc=tp-ta
